.include "nominal.jsim"
.include "lab2cmoscheckoff.jsim"

.subckt F A B C Z
* BEGIN ANSWER
XUP A B C Q pull-up
XDOWN A B C Q pull-down
XINV Q Z inv
.ends

* NOT F CMOS circuitry: Pullup
.subckt pull-up a b c q
MPU1 p a vdd vdd
MPU2 p b vdd vdd
MPU3 q c p vdd
.end

* NOT F CMOS circuitry: Pulldown
.subckt pull-down a b c q
MPD1 p a 0 0
MPD2 q b p 0
MPD3 q c 0 0
.ends

* Inverter
.subckt inv a z
MPD1 z a 0 0 NENH sw=16 sl=1
MPU1 z a vdd vdd PENH sw=16 sl=1
.ends

*END ANSWER
.ends